REMARK  Name = 09L - Ideal conformer
REMARK  4 active torsions:
REMARK  status: ('A' for Active; 'I' for Inactive)
REMARK    1  A    between atoms: C_3  and  C_4
REMARK    2  A    between atoms: C_12  and  C_14
REMARK    3  A    between atoms: C_20  and  C_21
REMARK    4  A    between atoms: C_21  and  C_22
REMARK                            x       y       z     vdW  Elec       q    Type
REMARK                         _______ _______ _______ _____ _____    ______ ____
ROOT
ATOM      1  C   UNL     1       0.517  -1.843   0.138  0.00  0.00    +0.000 A 
ATOM      2  C   UNL     1      -0.352  -0.763   0.308  0.00  0.00    +0.000 A 
ATOM      3  C   UNL     1       0.307  -3.021   0.860  0.00  0.00    +0.000 A 
ATOM      4  F   UNL     1       1.140  -4.073   0.698  0.00  0.00    +0.000 F 
ATOM      5  C   UNL     1      -0.756  -3.107   1.741  0.00  0.00    +0.000 A 
ATOM      6  C   UNL     1      -1.607  -2.031   1.907  0.00  0.00    +0.000 A 
ATOM      7  C   UNL     1      -1.407  -0.863   1.190  0.00  0.00    +0.000 A 
ENDROOT
BRANCH   1  16
ATOM      8  C   UNL     1       5.653   1.492   0.426  0.00  0.00    +0.000 C 
ATOM      9  O   UNL     1       5.480   2.359   1.256  0.00  0.00    +0.000 OA
ATOM     10  N   UNL     1       4.767   0.483   0.310  0.00  0.00    +0.000 N 
ATOM     11  C   UNL     1       4.968  -0.577  -0.688  0.00  0.00    +0.000 C 
ATOM     12  C   UNL     1       3.713  -0.668  -1.566  0.00  0.00    +0.000 C 
ATOM     13  C   UNL     1       3.586   0.420   1.183  0.00  0.00    +0.000 C 
ATOM     14  C   UNL     1       2.332   0.336   0.305  0.00  0.00    +0.000 C 
ATOM     15  N   UNL     1       2.533  -0.730  -0.693  0.00  0.00    +0.000 N 
ATOM     16  C   UNL     1       1.649  -1.742  -0.806  0.00  0.00    +0.000 C 
ATOM     17  O   UNL     1       1.784  -2.572  -1.684  0.00  0.00    +0.000 OA
BRANCH   8  20
ATOM     18  C   UNL     1       7.828   2.714  -0.295  0.00  0.00    +0.000 C 
ATOM     19  C   UNL     1       6.913   2.660  -1.520  0.00  0.00    +0.000 C 
ATOM     20  C   UNL     1       6.859   1.543  -0.476  0.00  0.00    +0.000 C 
ENDBRANCH   8  20
ENDBRANCH   1  16
BRANCH   7  21
ATOM     21  C   UNL     1      -2.345   0.301   1.374  0.00  0.00    +0.000 C 
BRANCH  21  22
ATOM     22  C   UNL     1      -3.483   0.190   0.392  0.00  0.00    +0.000 A 
ATOM     23  C   UNL     1      -4.530   1.212   0.368  0.00  0.00    +0.000 A 
ATOM     24  C   UNL     1      -4.517   2.302   1.240  0.00  0.00    +0.000 A 
ATOM     25  C   UNL     1      -5.518   3.230   1.178  0.00  0.00    +0.000 A 
ATOM     26  C   UNL     1      -6.552   3.105   0.258  0.00  0.00    +0.000 A 
ATOM     27  C   UNL     1      -6.591   2.040  -0.615  0.00  0.00    +0.000 A 
ATOM     28  C   UNL     1      -5.580   1.080  -0.570  0.00  0.00    +0.000 A 
ATOM     29  C   UNL     1      -5.565  -0.077  -1.473  0.00  0.00    +0.000 A 
ATOM     30  O   UNL     1      -6.448  -0.233  -2.298  0.00  0.00    +0.000 OA
ATOM     31  N   UNL     1      -4.554  -0.966  -1.372  0.00  0.00    +0.000 N 
ATOM     32  N   UNL     1      -3.530  -0.810  -0.437  0.00  0.00    +0.000 NA
ATOM     33  H   UNL     1      -4.539  -1.733  -1.965  0.00  0.00    +0.000 HD
ENDBRANCH  21  22
ENDBRANCH   7  21
TORSDOF 4
