REMARK  Name = 1N1 - Ideal conformer
REMARK  8 active torsions:
REMARK  status: ('A' for Active; 'I' for Inactive)
REMARK    1  A    between atoms: C_2  and  C_3
REMARK    2  A    between atoms: N_4  and  C_16
REMARK    3  A    between atoms: C_7  and  C_8
REMARK    4  A    between atoms: C_9  and  N_18
REMARK    5  A    between atoms: C_12  and  C_13
REMARK    6  A    between atoms: C_16  and  C_17
REMARK    7  A    between atoms: C_17  and  O_33
REMARK    8  A    between atoms: N_22  and  C_23
REMARK                            x       y       z     vdW  Elec       q    Type
REMARK                         _______ _______ _______ _____ _____    ______ ____
ROOT
ATOM      1  C   UNL     1      -2.123   1.249   0.411  0.00  0.00    +0.000 A 
ATOM      2  C   UNL     1      -3.003   0.262   0.064  0.00  0.00    +0.000 A 
ATOM      3  N   UNL     1       0.642  -0.694  -0.634  0.00  0.00    +0.000 N 
ATOM      4  C   UNL     1      -0.619  -0.220  -0.332  0.00  0.00    +0.000 A 
ATOM      5  N   UNL     1      -0.869   0.949   0.183  0.00  0.00    +0.000 NA
ATOM      6  S   UNL     1      -2.071  -1.087  -0.583  0.00  0.00    +0.000 S 
ATOM      7  H   UNL     1       0.745  -1.545  -1.088  0.00  0.00    +0.000 HD
ENDROOT
BRANCH   3   9
ATOM      8  N   UNL     1       8.103  -0.744  -0.209  0.00  0.00    +0.000 NA
ATOM      9  C   UNL     1       1.763   0.048  -0.287  0.00  0.00    +0.000 A 
ATOM     10  C   UNL     1       3.032  -0.363  -0.683  0.00  0.00    +0.000 A 
ATOM     11  C   UNL     1       4.124   0.415  -0.310  0.00  0.00    +0.000 A 
ATOM     12  C   UNL     1       2.699   1.874   0.762  0.00  0.00    +0.000 A 
ATOM     13  C   UNL     1       2.512   3.130   1.574  0.00  0.00    +0.000 C 
ATOM     14  C   UNL     1       6.397   1.012  -0.178  0.00  0.00    +0.000 C 
ATOM     15  C   UNL     1       5.721  -1.312  -0.216  0.00  0.00    +0.000 C 
ATOM     16  N   UNL     1       3.917   1.518   0.407  0.00  0.00    +0.000 NA
ATOM     17  N   UNL     1       1.641   1.161   0.433  0.00  0.00    +0.000 NA
ATOM     18  N   UNL     1       5.409   0.047  -0.680  0.00  0.00    +0.000 N 
ATOM     19  C   UNL     1       7.790   0.615  -0.673  0.00  0.00    +0.000 C 
ATOM     20  C   UNL     1       7.114  -1.709  -0.711  0.00  0.00    +0.000 C 
BRANCH   8  21
ATOM     21  C   UNL     1       9.464  -1.133  -0.601  0.00  0.00    +0.000 C 
BRANCH  21  22
ATOM     22  C   UNL     1      10.476  -0.432   0.308  0.00  0.00    +0.000 C 
BRANCH  22  23
ATOM     23  O   UNL     1      10.310  -0.893   1.651  0.00  0.00    +0.000 OA
ATOM     24  H   UNL     1      10.920  -0.489   2.283  0.00  0.00    +0.000 HD
ENDBRANCH  22  23
ENDBRANCH  21  22
ENDBRANCH   8  21
ENDBRANCH   3   9
BRANCH   2  25
ATOM     25  C   UNL     1      -4.458   0.316   0.203  0.00  0.00    +0.000 C 
ATOM     26  N   UNL     1      -5.211  -0.734  -0.182  0.00  0.00    +0.000 N 
ATOM     27  O   UNL     1      -4.988   1.309   0.665  0.00  0.00    +0.000 OA
ATOM     28  H   UNL     1      -4.797  -1.492  -0.623  0.00  0.00    +0.000 HD
BRANCH  26  33
ATOM     29  C   UNL     1      -9.317  -0.721   0.526  0.00  0.00    +0.000 A 
ATOM     30  C   UNL     1      -8.550  -1.797   0.932  0.00  0.00    +0.000 A 
ATOM     31  C   UNL     1      -7.188  -1.804   0.699  0.00  0.00    +0.000 A 
ATOM     32  C   UNL     1      -6.353  -2.978   1.143  0.00  0.00    +0.000 C 
ATOM     33  C   UNL     1      -6.590  -0.729   0.056  0.00  0.00    +0.000 A 
ATOM     34  C   UNL     1      -7.364   0.351  -0.351  0.00  0.00    +0.000 A 
ATOM     35  C   UNL     1      -8.725   0.352  -0.115  0.00  0.00    +0.000 A 
ATOM     36 CL   UNL     1      -6.621   1.698  -1.156  0.00  0.00    +0.000 Cl
ENDBRANCH  26  33
ENDBRANCH   2  25
TORSDOF 6
