09L - Ideal conformer
RDKit          3D

 55 59  0  0  0  0  0  0  0  0999 V2000
    7.8280    2.7140   -0.2950 C   0  0  0  0  0  0  0  0  0  0  0  0
    6.9130    2.6600   -1.5200 C   0  0  0  0  0  0  0  0  0  0  0  0
    6.8590    1.5430   -0.4760 C   0  0  0  0  0  0  0  0  0  0  0  0
    5.6530    1.4920    0.4260 C   0  0  0  0  0  0  0  0  0  0  0  0
    5.4800    2.3590    1.2560 O   0  0  0  0  0  0  0  0  0  0  0  0
    4.7670    0.4830    0.3100 N   0  0  0  0  0  0  0  0  0  0  0  0
    4.9680   -0.5770   -0.6880 C   0  0  0  0  0  0  0  0  0  0  0  0
    3.7130   -0.6680   -1.5660 C   0  0  0  0  0  0  0  0  0  0  0  0
    3.5860    0.4200    1.1830 C   0  0  0  0  0  0  0  0  0  0  0  0
    2.3320    0.3360    0.3050 C   0  0  0  0  0  0  0  0  0  0  0  0
    2.5330   -0.7300   -0.6930 N   0  0  0  0  0  0  0  0  0  0  0  0
    1.6490   -1.7420   -0.8060 C   0  0  0  0  0  0  0  0  0  0  0  0
    1.7840   -2.5720   -1.6840 O   0  0  0  0  0  0  0  0  0  0  0  0
    0.5170   -1.8430    0.1380 C   0  0  0  0  0  0  0  0  0  0  0  0
   -0.3520   -0.7630    0.3080 C   0  0  0  0  0  0  0  0  0  0  0  0
    0.3070   -3.0210    0.8600 C   0  0  0  0  0  0  0  0  0  0  0  0
    1.1400   -4.0730    0.6980 F   0  0  0  0  0  0  0  0  0  0  0  0
   -0.7560   -3.1070    1.7410 C   0  0  0  0  0  0  0  0  0  0  0  0
   -1.6070   -2.0310    1.9070 C   0  0  0  0  0  0  0  0  0  0  0  0
   -1.4070   -0.8630    1.1900 C   0  0  0  0  0  0  0  0  0  0  0  0
   -2.3450    0.3010    1.3740 C   0  0  0  0  0  0  0  0  0  0  0  0
   -3.4830    0.1900    0.3920 C   0  0  0  0  0  0  0  0  0  0  0  0
   -4.5300    1.2120    0.3680 C   0  0  0  0  0  0  0  0  0  0  0  0
   -4.5170    2.3020    1.2400 C   0  0  0  0  0  0  0  0  0  0  0  0
   -5.5180    3.2300    1.1780 C   0  0  0  0  0  0  0  0  0  0  0  0
   -6.5520    3.1050    0.2580 C   0  0  0  0  0  0  0  0  0  0  0  0
   -6.5910    2.0400   -0.6150 C   0  0  0  0  0  0  0  0  0  0  0  0
   -5.5800    1.0800   -0.5700 C   0  0  0  0  0  0  0  0  0  0  0  0
   -5.5650   -0.0770   -1.4730 C   0  0  0  0  0  0  0  0  0  0  0  0
   -6.4480   -0.2330   -2.2980 O   0  0  0  0  0  0  0  0  0  0  0  0
   -4.5540   -0.9660   -1.3720 N   0  0  0  0  0  0  0  0  0  0  0  0
   -3.5300   -0.8100   -0.4370 N   0  0  0  0  0  0  0  0  0  0  0  0
    8.8890    2.5170   -0.4490 H   0  0  0  0  0  0  0  0  0  0  0  0
    7.5930    3.4470    0.4770 H   0  0  0  0  0  0  0  0  0  0  0  0
    6.0770    3.3580   -1.5550 H   0  0  0  0  0  0  0  0  0  0  0  0
    7.3730    2.4290   -2.4810 H   0  0  0  0  0  0  0  0  0  0  0  0
    7.2830    0.5770   -0.7500 H   0  0  0  0  0  0  0  0  0  0  0  0
    5.8320   -0.3380   -1.3080 H   0  0  0  0  0  0  0  0  0  0  0  0
    5.1330   -1.5290   -0.1820 H   0  0  0  0  0  0  0  0  0  0  0  0
    3.6500    0.2130   -2.2050 H   0  0  0  0  0  0  0  0  0  0  0  0
    3.7610   -1.5660   -2.1810 H   0  0  0  0  0  0  0  0  0  0  0  0
    3.6480   -0.4630    1.8180 H   0  0  0  0  0  0  0  0  0  0  0  0
    3.5420    1.3150    1.8030 H   0  0  0  0  0  0  0  0  0  0  0  0
    1.4670    0.0970    0.9240 H   0  0  0  0  0  0  0  0  0  0  0  0
    2.1700    1.2910   -0.1950 H   0  0  0  0  0  0  0  0  0  0  0  0
   -0.1980    0.1490   -0.2490 H   0  0  0  0  0  0  0  0  0  0  0  0
   -0.9210   -4.0160    2.3000 H   0  0  0  0  0  0  0  0  0  0  0  0
   -2.4360   -2.1030    2.5960 H   0  0  0  0  0  0  0  0  0  0  0  0
   -2.7400    0.2920    2.3900 H   0  0  0  0  0  0  0  0  0  0  0  0
   -1.8060    1.2330    1.2020 H   0  0  0  0  0  0  0  0  0  0  0  0
   -3.7200    2.4110    1.9600 H   0  0  0  0  0  0  0  0  0  0  0  0
   -5.5060    4.0720    1.8540 H   0  0  0  0  0  0  0  0  0  0  0  0
   -7.3330    3.8500    0.2270 H   0  0  0  0  0  0  0  0  0  0  0  0
   -7.3970    1.9490   -1.3280 H   0  0  0  0  0  0  0  0  0  0  0  0
   -4.5390   -1.7330   -1.9650 H   0  0  0  0  0  0  0  0  0  0  0  0
 26 27  2  0
 26 25  1  0
 27 28  1  0
 30 29  2  0
 25 24  2  0
 28 29  1  0
 28 23  2  0
 29 31  1  0
 24 23  1  0
 23 22  1  0
 31 32  1  0
 22 32  2  0
 22 21  1  0
 21 20  1  0
 13 12  2  0
 15 20  2  0
 15 14  1  0
 20 19  1  0
 12 14  1  0
 12 11  1  0
  8 11  1  0
  8  7  1  0
 14 16  2  0
 11 10  1  0
 19 18  2  0
  7  6  1  0
 10  9  1  0
 16 18  1  0
 16 17  1  0
  6  9  1  0
  6  4  1  0
  5  4  2  0
  4  3  1  0
  3  1  1  0
  3  2  1  0
  1  2  1  0
  1 33  1  0
  1 34  1  0
  2 35  1  0
  2 36  1  0
  3 37  1  0
  7 38  1  0
  7 39  1  0
  8 40  1  0
  8 41  1  0
  9 42  1  0
  9 43  1  0
 10 44  1  0
 10 45  1  0
 15 46  1  0
 18 47  1  0
 19 48  1  0
 21 49  1  0
 21 50  1  0
 24 51  1  0
 25 52  1  0
 26 53  1  0
 27 54  1  0
 31 55  1  0
M  END
$$$$
