REMARK VINA RESULT:   -10.349      0.000      0.000
REMARK INTER + INTRA:         -13.027
REMARK INTER:                 -12.190
REMARK INTRA:                  -0.837
REMARK UNBOUND:                -0.258
REMARK  Name = 09L - Ideal conformer
REMARK  4 active torsions:
REMARK  status: ('A' for Active; 'I' for Inactive)
REMARK    1  A    between atoms: C_3  and  C_4
REMARK    2  A    between atoms: C_12  and  C_14
REMARK    3  A    between atoms: C_20  and  C_21
REMARK    4  A    between atoms: C_21  and  C_22
REMARK                            x       y       z     vdW  Elec       q    Type
REMARK                         _______ _______ _______ _____ _____    ______ ____
ROOT
ATOM      1  C   UNL     1      21.115   5.618  13.494  0.00  0.00    +0.000 A 
ATOM      2  C   UNL     1      21.260   5.355  14.857  0.00  0.00    +0.000 A 
ATOM      3  C   UNL     1      22.118   5.226  12.603  0.00  0.00    +0.000 A 
ATOM      4  F   UNL     1      21.985   5.472  11.281  0.00  0.00    +0.000 F 
ATOM      5  C   UNL     1      23.249   4.586  13.079  0.00  0.00    +0.000 A 
ATOM      6  C   UNL     1      23.385   4.335  14.431  0.00  0.00    +0.000 A 
ATOM      7  C   UNL     1      22.392   4.716  15.317  0.00  0.00    +0.000 A 
ENDROOT
BRANCH   1  16
ATOM      8  C   UNL     1      15.184   4.286  14.284  0.00  0.00    +0.000 C 
ATOM      9  O   UNL     1      15.115   3.137  14.665  0.00  0.00    +0.000 OA
ATOM     10  N   UNL     1      16.377   4.910  14.237  0.00  0.00    +0.000 N 
ATOM     11  C   UNL     1      16.474   6.304  13.782  0.00  0.00    +0.000 C 
ATOM     12  C   UNL     1      17.485   6.376  12.630  0.00  0.00    +0.000 C 
ATOM     13  C   UNL     1      17.604   4.210  14.644  0.00  0.00    +0.000 C 
ATOM     14  C   UNL     1      18.611   4.276  13.490  0.00  0.00    +0.000 C 
ATOM     15  N   UNL     1      18.711   5.675  13.038  0.00  0.00    +0.000 N 
ATOM     16  C   UNL     1      19.904   6.301  12.995  0.00  0.00    +0.000 C 
ATOM     17  O   UNL     1      19.984   7.429  12.546  0.00  0.00    +0.000 OA
BRANCH   8  20
ATOM     18  C   UNL     1      13.048   5.596  14.969  0.00  0.00    +0.000 C 
ATOM     19  C   UNL     1      12.591   4.361  14.189  0.00  0.00    +0.000 C 
ATOM     20  C   UNL     1      13.934   5.016  13.863  0.00  0.00    +0.000 C 
ENDBRANCH   8  20
ENDBRANCH   1  16
BRANCH   7  21
ATOM     21  C   UNL     1      22.548   4.432  16.788  0.00  0.00    +0.000 C 
BRANCH  21  22
ATOM     22  C   UNL     1      22.671   2.945  17.002  0.00  0.00    +0.000 A 
ATOM     23  C   UNL     1      21.467   2.121  17.118  0.00  0.00    +0.000 A 
ATOM     24  C   UNL     1      20.187   2.671  17.041  0.00  0.00    +0.000 A 
ATOM     25  C   UNL     1      19.094   1.860  17.155  0.00  0.00    +0.000 A 
ATOM     26  C   UNL     1      19.237   0.491  17.346  0.00  0.00    +0.000 A 
ATOM     27  C   UNL     1      20.488  -0.081  17.425  0.00  0.00    +0.000 A 
ATOM     28  C   UNL     1      21.619   0.729  17.312  0.00  0.00    +0.000 A 
ATOM     29  C   UNL     1      22.979   0.181  17.388  0.00  0.00    +0.000 A 
ATOM     30  O   UNL     1      23.159  -1.013  17.555  0.00  0.00    +0.000 OA
ATOM     31  N   UNL     1      24.026   1.024  17.271  0.00  0.00    +0.000 N 
ATOM     32  N   UNL     1      23.846   2.395  17.078  0.00  0.00    +0.000 NA
ATOM     33  H   UNL     1      24.926   0.669  17.321  0.00  0.00    +0.000 HD
ENDBRANCH  21  22
ENDBRANCH   7  21
TORSDOF 4
