MODEL 1
REMARK VINA RESULT:   -10.349      0.000      0.000
REMARK INTER + INTRA:         -13.027
REMARK INTER:                 -12.190
REMARK INTRA:                  -0.837
REMARK UNBOUND:                -0.258
REMARK  Name = 09L - Ideal conformer
REMARK  4 active torsions:
REMARK  status: ('A' for Active; 'I' for Inactive)
REMARK    1  A    between atoms: C_3  and  C_4
REMARK    2  A    between atoms: C_12  and  C_14
REMARK    3  A    between atoms: C_20  and  C_21
REMARK    4  A    between atoms: C_21  and  C_22
REMARK                            x       y       z     vdW  Elec       q    Type
REMARK                         _______ _______ _______ _____ _____    ______ ____
ROOT
ATOM      1  C   UNL     1      21.115   5.618  13.494  0.00  0.00    +0.000 A 
ATOM      2  C   UNL     1      21.260   5.355  14.857  0.00  0.00    +0.000 A 
ATOM      3  C   UNL     1      22.118   5.226  12.603  0.00  0.00    +0.000 A 
ATOM      4  F   UNL     1      21.985   5.472  11.281  0.00  0.00    +0.000 F 
ATOM      5  C   UNL     1      23.249   4.586  13.079  0.00  0.00    +0.000 A 
ATOM      6  C   UNL     1      23.385   4.335  14.431  0.00  0.00    +0.000 A 
ATOM      7  C   UNL     1      22.392   4.716  15.317  0.00  0.00    +0.000 A 
ENDROOT
BRANCH   1  16
ATOM      8  C   UNL     1      15.184   4.286  14.284  0.00  0.00    +0.000 C 
ATOM      9  O   UNL     1      15.115   3.137  14.665  0.00  0.00    +0.000 OA
ATOM     10  N   UNL     1      16.377   4.910  14.237  0.00  0.00    +0.000 N 
ATOM     11  C   UNL     1      16.474   6.304  13.782  0.00  0.00    +0.000 C 
ATOM     12  C   UNL     1      17.485   6.376  12.630  0.00  0.00    +0.000 C 
ATOM     13  C   UNL     1      17.604   4.210  14.644  0.00  0.00    +0.000 C 
ATOM     14  C   UNL     1      18.611   4.276  13.490  0.00  0.00    +0.000 C 
ATOM     15  N   UNL     1      18.711   5.675  13.038  0.00  0.00    +0.000 N 
ATOM     16  C   UNL     1      19.904   6.301  12.995  0.00  0.00    +0.000 C 
ATOM     17  O   UNL     1      19.984   7.429  12.546  0.00  0.00    +0.000 OA
BRANCH   8  20
ATOM     18  C   UNL     1      13.048   5.596  14.969  0.00  0.00    +0.000 C 
ATOM     19  C   UNL     1      12.591   4.361  14.189  0.00  0.00    +0.000 C 
ATOM     20  C   UNL     1      13.934   5.016  13.863  0.00  0.00    +0.000 C 
ENDBRANCH   8  20
ENDBRANCH   1  16
BRANCH   7  21
ATOM     21  C   UNL     1      22.548   4.432  16.788  0.00  0.00    +0.000 C 
BRANCH  21  22
ATOM     22  C   UNL     1      22.671   2.945  17.002  0.00  0.00    +0.000 A 
ATOM     23  C   UNL     1      21.467   2.121  17.118  0.00  0.00    +0.000 A 
ATOM     24  C   UNL     1      20.187   2.671  17.041  0.00  0.00    +0.000 A 
ATOM     25  C   UNL     1      19.094   1.860  17.155  0.00  0.00    +0.000 A 
ATOM     26  C   UNL     1      19.237   0.491  17.346  0.00  0.00    +0.000 A 
ATOM     27  C   UNL     1      20.488  -0.081  17.425  0.00  0.00    +0.000 A 
ATOM     28  C   UNL     1      21.619   0.729  17.312  0.00  0.00    +0.000 A 
ATOM     29  C   UNL     1      22.979   0.181  17.388  0.00  0.00    +0.000 A 
ATOM     30  O   UNL     1      23.159  -1.013  17.555  0.00  0.00    +0.000 OA
ATOM     31  N   UNL     1      24.026   1.024  17.271  0.00  0.00    +0.000 N 
ATOM     32  N   UNL     1      23.846   2.395  17.078  0.00  0.00    +0.000 NA
ATOM     33  H   UNL     1      24.926   0.669  17.321  0.00  0.00    +0.000 HD
ENDBRANCH  21  22
ENDBRANCH   7  21
TORSDOF 4
ENDMDL
MODEL 2
REMARK VINA RESULT:   -10.191      1.920      2.439
REMARK INTER + INTRA:         -12.832
REMARK INTER:                 -13.158
REMARK INTRA:                   0.325
REMARK UNBOUND:                -0.258
REMARK  Name = 09L - Ideal conformer
REMARK  4 active torsions:
REMARK  status: ('A' for Active; 'I' for Inactive)
REMARK    1  A    between atoms: C_3  and  C_4
REMARK    2  A    between atoms: C_12  and  C_14
REMARK    3  A    between atoms: C_20  and  C_21
REMARK    4  A    between atoms: C_21  and  C_22
REMARK                            x       y       z     vdW  Elec       q    Type
REMARK                         _______ _______ _______ _____ _____    ______ ____
ROOT
ATOM      1  C   UNL     1      19.493   5.880  15.467  0.00  0.00    +0.000 A 
ATOM      2  C   UNL     1      20.436   4.996  14.938  0.00  0.00    +0.000 A 
ATOM      3  C   UNL     1      19.705   6.447  16.726  0.00  0.00    +0.000 A 
ATOM      4  F   UNL     1      18.801   7.308  17.244  0.00  0.00    +0.000 F 
ATOM      5  C   UNL     1      20.844   6.124  17.443  0.00  0.00    +0.000 A 
ATOM      6  C   UNL     1      21.768   5.243  16.914  0.00  0.00    +0.000 A 
ATOM      7  C   UNL     1      21.566   4.682  15.664  0.00  0.00    +0.000 A 
ENDROOT
BRANCH   1  16
ATOM      8  C   UNL     1      13.967   3.227  15.362  0.00  0.00    +0.000 C 
ATOM      9  O   UNL     1      14.083   2.123  15.849  0.00  0.00    +0.000 OA
ATOM     10  N   UNL     1      14.979   4.114  15.453  0.00  0.00    +0.000 N 
ATOM     11  C   UNL     1      14.850   5.457  14.872  0.00  0.00    +0.000 C 
ATOM     12  C   UNL     1      16.023   5.690  13.911  0.00  0.00    +0.000 C 
ATOM     13  C   UNL     1      16.228   3.756  16.141  0.00  0.00    +0.000 C 
ATOM     14  C   UNL     1      17.399   3.983  15.178  0.00  0.00    +0.000 C 
ATOM     15  N   UNL     1      17.271   5.332  14.598  0.00  0.00    +0.000 N 
ATOM     16  C   UNL     1      18.281   6.220  14.694  0.00  0.00    +0.000 C 
ATOM     17  O   UNL     1      18.193   7.301  14.145  0.00  0.00    +0.000 OA
BRANCH   8  20
ATOM     18  C   UNL     1      11.502   4.028  15.519  0.00  0.00    +0.000 C 
ATOM     19  C   UNL     1      11.493   2.673  14.808  0.00  0.00    +0.000 C 
ATOM     20  C   UNL     1      12.693   3.609  14.654  0.00  0.00    +0.000 C 
ENDBRANCH   8  20
ENDBRANCH   1  16
BRANCH   7  21
ATOM     21  C   UNL     1      22.583   3.728  15.095  0.00  0.00    +0.000 C 
BRANCH  21  22
ATOM     22  C   UNL     1      22.903   2.667  16.115  0.00  0.00    +0.000 A 
ATOM     23  C   UNL     1      21.821   1.989  16.829  0.00  0.00    +0.000 A 
ATOM     24  C   UNL     1      20.479   2.298  16.600  0.00  0.00    +0.000 A 
ATOM     25  C   UNL     1      19.505   1.636  17.292  0.00  0.00    +0.000 A 
ATOM     26  C   UNL     1      19.829   0.657  18.223  0.00  0.00    +0.000 A 
ATOM     27  C   UNL     1      21.145   0.331  18.471  0.00  0.00    +0.000 A 
ATOM     28  C   UNL     1      22.157   0.994  17.776  0.00  0.00    +0.000 A 
ATOM     29  C   UNL     1      23.577   0.692  17.994  0.00  0.00    +0.000 A 
ATOM     30  O   UNL     1      23.915  -0.158  18.800  0.00  0.00    +0.000 OA
ATOM     31  N   UNL     1      24.501   1.374  17.286  0.00  0.00    +0.000 N 
ATOM     32  N   UNL     1      24.141   2.350  16.356  0.00  0.00    +0.000 NA
ATOM     33  H   UNL     1      25.441   1.180  17.426  0.00  0.00    +0.000 HD
ENDBRANCH  21  22
ENDBRANCH   7  21
TORSDOF 4
ENDMDL
MODEL 3
REMARK VINA RESULT:   -10.114      2.878      5.184
REMARK INTER + INTRA:         -12.737
REMARK INTER:                 -12.070
REMARK INTRA:                  -0.667
REMARK UNBOUND:                -0.258
REMARK  Name = 09L - Ideal conformer
REMARK  4 active torsions:
REMARK  status: ('A' for Active; 'I' for Inactive)
REMARK    1  A    between atoms: C_3  and  C_4
REMARK    2  A    between atoms: C_12  and  C_14
REMARK    3  A    between atoms: C_20  and  C_21
REMARK    4  A    between atoms: C_21  and  C_22
REMARK                            x       y       z     vdW  Elec       q    Type
REMARK                         _______ _______ _______ _____ _____    ______ ____
ROOT
ATOM      1  C   UNL     1      20.231   4.138  16.474  0.00  0.00    +0.000 A 
ATOM      2  C   UNL     1      21.466   4.450  15.900  0.00  0.00    +0.000 A 
ATOM      3  C   UNL     1      20.025   2.871  17.026  0.00  0.00    +0.000 A 
ATOM      4  F   UNL     1      18.835   2.562  17.588  0.00  0.00    +0.000 F 
ATOM      5  C   UNL     1      21.042   1.934  16.997  0.00  0.00    +0.000 A 
ATOM      6  C   UNL     1      22.258   2.250  16.422  0.00  0.00    +0.000 A 
ATOM      7  C   UNL     1      22.470   3.506  15.877  0.00  0.00    +0.000 A 
ENDROOT
BRANCH   1  16
ATOM      8  C   UNL     1      14.708   4.126  13.814  0.00  0.00    +0.000 C 
ATOM      9  O   UNL     1      14.722   3.281  12.945  0.00  0.00    +0.000 OA
ATOM     10  N   UNL     1      15.719   4.197  14.702  0.00  0.00    +0.000 N 
ATOM     11  C   UNL     1      15.710   5.213  15.765  0.00  0.00    +0.000 C 
ATOM     12  C   UNL     1      17.015   6.017  15.685  0.00  0.00    +0.000 C 
ATOM     13  C   UNL     1      16.847   3.257  14.629  0.00  0.00    +0.000 C 
ATOM     14  C   UNL     1      18.149   4.061  14.543  0.00  0.00    +0.000 C 
ATOM     15  N   UNL     1      18.142   5.077  15.611  0.00  0.00    +0.000 N 
ATOM     16  C   UNL     1      19.151   5.146  16.502  0.00  0.00    +0.000 C 
ATOM     17  O   UNL     1      19.172   6.036  17.330  0.00  0.00    +0.000 OA
BRANCH   8  20
ATOM     18  C   UNL     1      12.351   4.687  14.750  0.00  0.00    +0.000 C 
ATOM     19  C   UNL     1      12.246   4.699  13.223  0.00  0.00    +0.000 C 
ATOM     20  C   UNL     1      13.558   5.096  13.902  0.00  0.00    +0.000 C 
ENDBRANCH   8  20
ENDBRANCH   1  16
BRANCH   7  21
ATOM     21  C   UNL     1      23.802   3.841  15.259  0.00  0.00    +0.000 C 
BRANCH  21  22
ATOM     22  C   UNL     1      23.846   5.310  14.924  0.00  0.00    +0.000 A 
ATOM     23  C   UNL     1      23.594   5.755  13.553  0.00  0.00    +0.000 A 
ATOM     24  C   UNL     1      23.317   4.853  12.524  0.00  0.00    +0.000 A 
ATOM     25  C   UNL     1      23.089   5.318  11.260  0.00  0.00    +0.000 A 
ATOM     26  C   UNL     1      23.129   6.679  10.981  0.00  0.00    +0.000 A 
ATOM     27  C   UNL     1      23.401   7.592  11.976  0.00  0.00    +0.000 A 
ATOM     28  C   UNL     1      23.637   7.141  13.275  0.00  0.00    +0.000 A 
ATOM     29  C   UNL     1      23.931   8.063  14.378  0.00  0.00    +0.000 A 
ATOM     30  O   UNL     1      23.978   9.266  14.187  0.00  0.00    +0.000 OA
ATOM     31  N   UNL     1      24.149   7.554  15.609  0.00  0.00    +0.000 N 
ATOM     32  N   UNL     1      24.100   6.181  15.855  0.00  0.00    +0.000 NA
ATOM     33  H   UNL     1      24.345   8.158  16.342  0.00  0.00    +0.000 HD
ENDBRANCH  21  22
ENDBRANCH   7  21
TORSDOF 4
ENDMDL
MODEL 4
REMARK VINA RESULT:   -10.113      2.742      5.440
REMARK INTER + INTRA:         -12.736
REMARK INTER:                 -12.286
REMARK INTRA:                  -0.450
REMARK UNBOUND:                -0.258
REMARK  Name = 09L - Ideal conformer
REMARK  4 active torsions:
REMARK  status: ('A' for Active; 'I' for Inactive)
REMARK    1  A    between atoms: C_3  and  C_4
REMARK    2  A    between atoms: C_12  and  C_14
REMARK    3  A    between atoms: C_20  and  C_21
REMARK    4  A    between atoms: C_21  and  C_22
REMARK                            x       y       z     vdW  Elec       q    Type
REMARK                         _______ _______ _______ _____ _____    ______ ____
ROOT
ATOM      1  C   UNL     1      20.688   1.416  17.126  0.00  0.00    +0.000 A 
ATOM      2  C   UNL     1      21.264   2.375  16.289  0.00  0.00    +0.000 A 
ATOM      3  C   UNL     1      21.469   0.789  18.100  0.00  0.00    +0.000 A 
ATOM      4  F   UNL     1      20.919  -0.136  18.918  0.00  0.00    +0.000 F 
ATOM      5  C   UNL     1      22.807   1.118  18.226  0.00  0.00    +0.000 A 
ATOM      6  C   UNL     1      23.369   2.063  17.390  0.00  0.00    +0.000 A 
ATOM      7  C   UNL     1      22.599   2.692  16.426  0.00  0.00    +0.000 A 
ENDROOT
BRANCH   1  16
ATOM      8  C   UNL     1      15.909   4.876  15.459  0.00  0.00    +0.000 C 
ATOM      9  O   UNL     1      16.243   6.037  15.565  0.00  0.00    +0.000 OA
ATOM     10  N   UNL     1      16.831   3.897  15.553  0.00  0.00    +0.000 N 
ATOM     11  C   UNL     1      16.441   2.487  15.420  0.00  0.00    +0.000 C 
ATOM     12  C   UNL     1      16.921   1.725  16.663  0.00  0.00    +0.000 C 
ATOM     13  C   UNL     1      18.246   4.222  15.785  0.00  0.00    +0.000 C 
ATOM     14  C   UNL     1      18.724   3.466  17.031  0.00  0.00    +0.000 C 
ATOM     15  N   UNL     1      18.335   2.051  16.895  0.00  0.00    +0.000 N 
ATOM     16  C   UNL     1      19.258   1.072  16.985  0.00  0.00    +0.000 C 
ATOM     17  O   UNL     1      18.914  -0.093  16.949  0.00  0.00    +0.000 OA
BRANCH   8  20
ATOM     18  C   UNL     1      13.944   4.607  13.782  0.00  0.00    +0.000 C 
ATOM     19  C   UNL     1      13.522   5.661  14.808  0.00  0.00    +0.000 C 
ATOM     20  C   UNL     1      14.463   4.527  15.220  0.00  0.00    +0.000 C 
ENDBRANCH   8  20
ENDBRANCH   1  16
BRANCH   7  21
ATOM     21  C   UNL     1      23.221   3.726  15.524  0.00  0.00    +0.000 C 
BRANCH  21  22
ATOM     22  C   UNL     1      22.199   4.783  15.191  0.00  0.00    +0.000 A 
ATOM     23  C   UNL     1      21.899   5.840  16.157  0.00  0.00    +0.000 A 
ATOM     24  C   UNL     1      22.530   5.904  17.400  0.00  0.00    +0.000 A 
ATOM     25  C   UNL     1      22.214   6.911  18.268  0.00  0.00    +0.000 A 
ATOM     26  C   UNL     1      21.272   7.875  17.931  0.00  0.00    +0.000 A 
ATOM     27  C   UNL     1      20.633   7.837  16.711  0.00  0.00    +0.000 A 
ATOM     28  C   UNL     1      20.939   6.818  15.809  0.00  0.00    +0.000 A 
ATOM     29  C   UNL     1      20.294   6.723  14.494  0.00  0.00    +0.000 A 
ATOM     30  O   UNL     1      19.461   7.544  14.150  0.00  0.00    +0.000 OA
ATOM     31  N   UNL     1      20.640   5.709  13.673  0.00  0.00    +0.000 N 
ATOM     32  N   UNL     1      21.591   4.758  14.042  0.00  0.00    +0.000 NA
ATOM     33  H   UNL     1      20.216   5.641  12.803  0.00  0.00    +0.000 HD
ENDBRANCH  21  22
ENDBRANCH   7  21
TORSDOF 4
ENDMDL
MODEL 5
REMARK VINA RESULT:   -10.065     26.605     30.063
REMARK INTER + INTRA:         -12.677
REMARK INTER:                 -12.455
REMARK INTRA:                  -0.222
REMARK UNBOUND:                -0.258
REMARK  Name = 09L - Ideal conformer
REMARK  4 active torsions:
REMARK  status: ('A' for Active; 'I' for Inactive)
REMARK    1  A    between atoms: C_3  and  C_4
REMARK    2  A    between atoms: C_12  and  C_14
REMARK    3  A    between atoms: C_20  and  C_21
REMARK    4  A    between atoms: C_21  and  C_22
REMARK                            x       y       z     vdW  Elec       q    Type
REMARK                         _______ _______ _______ _____ _____    ______ ____
ROOT
ATOM      1  C   UNL     1      -9.178   9.180  24.898  0.00  0.00    +0.000 A 
ATOM      2  C   UNL     1      -7.880   9.349  24.412  0.00  0.00    +0.000 A 
ATOM      3  C   UNL     1      -9.678  10.061  25.860  0.00  0.00    +0.000 A 
ATOM      4  F   UNL     1     -10.935   9.908  26.333  0.00  0.00    +0.000 F 
ATOM      5  C   UNL     1      -8.882  11.092  26.328  0.00  0.00    +0.000 A 
ATOM      6  C   UNL     1      -7.597  11.248  25.845  0.00  0.00    +0.000 A 
ATOM      7  C   UNL     1      -7.098  10.380  24.887  0.00  0.00    +0.000 A 
ENDROOT
BRANCH   1  16
ATOM      8  C   UNL     1      -9.420   3.279  26.542  0.00  0.00    +0.000 C 
ATOM      9  O   UNL     1      -8.406   3.029  27.159  0.00  0.00    +0.000 OA
ATOM     10  N   UNL     1      -9.732   4.556  26.246  0.00  0.00    +0.000 N 
ATOM     11  C   UNL     1     -10.960   4.872  25.503  0.00  0.00    +0.000 C 
ATOM     12  C   UNL     1     -10.586   5.698  24.266  0.00  0.00    +0.000 C 
ATOM     13  C   UNL     1      -8.853   5.657  26.664  0.00  0.00    +0.000 C 
ATOM     14  C   UNL     1      -8.474   6.479  25.427  0.00  0.00    +0.000 C 
ATOM     15  N   UNL     1      -9.707   6.799  24.685  0.00  0.00    +0.000 N 
ATOM     16  C   UNL     1     -10.021   8.077  24.392  0.00  0.00    +0.000 C 
ATOM     17  O   UNL     1     -10.999   8.322  23.713  0.00  0.00    +0.000 OA
BRANCH   8  20
ATOM     18  C   UNL     1     -10.951   1.287  27.199  0.00  0.00    +0.000 C 
ATOM     19  C   UNL     1      -9.837   0.727  26.313  0.00  0.00    +0.000 C 
ATOM     20  C   UNL     1     -10.330   2.160  26.106  0.00  0.00    +0.000 C 
ENDBRANCH   8  20
ENDBRANCH   1  16
BRANCH   7  21
ATOM     21  C   UNL     1      -5.698  10.564  24.363  0.00  0.00    +0.000 C 
BRANCH  21  22
ATOM     22  C   UNL     1      -5.660  10.215  22.898  0.00  0.00    +0.000 A 
ATOM     23  C   UNL     1      -5.434   8.831  22.482  0.00  0.00    +0.000 A 
ATOM     24  C   UNL     1      -5.244   7.804  23.408  0.00  0.00    +0.000 A 
ATOM     25  C   UNL     1      -5.037   6.527  22.969  0.00  0.00    +0.000 A 
ATOM     26  C   UNL     1      -5.012   6.233  21.611  0.00  0.00    +0.000 A 
ATOM     27  C   UNL     1      -5.197   7.226  20.674  0.00  0.00    +0.000 A 
ATOM     28  C   UNL     1      -5.410   8.538  21.098  0.00  0.00    +0.000 A 
ATOM     29  C   UNL     1      -5.613   9.639  20.150  0.00  0.00    +0.000 A 
ATOM     30  O   UNL     1      -5.601   9.435  18.949  0.00  0.00    +0.000 OA
ATOM     31  N   UNL     1      -5.814  10.883  20.634  0.00  0.00    +0.000 N 
ATOM     32  N   UNL     1      -5.834  11.144  22.004  0.00  0.00    +0.000 NA
ATOM     33  H   UNL     1      -5.948  11.615  20.012  0.00  0.00    +0.000 HD
ENDBRANCH  21  22
ENDBRANCH   7  21
TORSDOF 4
ENDMDL
MODEL 6
REMARK VINA RESULT:   -10.049     23.623     29.394
REMARK INTER + INTRA:         -12.657
REMARK INTER:                 -13.105
REMARK INTRA:                   0.448
REMARK UNBOUND:                -0.258
REMARK  Name = 09L - Ideal conformer
REMARK  4 active torsions:
REMARK  status: ('A' for Active; 'I' for Inactive)
REMARK    1  A    between atoms: C_3  and  C_4
REMARK    2  A    between atoms: C_12  and  C_14
REMARK    3  A    between atoms: C_20  and  C_21
REMARK    4  A    between atoms: C_21  and  C_22
REMARK                            x       y       z     vdW  Elec       q    Type
REMARK                         _______ _______ _______ _____ _____    ______ ____
ROOT
ATOM      1  C   UNL     1      -7.193   6.791  23.403  0.00  0.00    +0.000 A 
ATOM      2  C   UNL     1      -8.296   7.647  23.370  0.00  0.00    +0.000 A 
ATOM      3  C   UNL     1      -6.845   6.156  24.599  0.00  0.00    +0.000 A 
ATOM      4  F   UNL     1      -5.782   5.322  24.638  0.00  0.00    +0.000 F 
ATOM      5  C   UNL     1      -7.590   6.385  25.741  0.00  0.00    +0.000 A 
ATOM      6  C   UNL     1      -8.676   7.239  25.700  0.00  0.00    +0.000 A 
ATOM      7  C   UNL     1      -9.029   7.866  24.517  0.00  0.00    +0.000 A 
ENDROOT
BRANCH   1  16
ATOM      8  C   UNL     1      -3.506  10.539  20.251  0.00  0.00    +0.000 C 
ATOM      9  O   UNL     1      -3.758  11.674  20.595  0.00  0.00    +0.000 OA
ATOM     10  N   UNL     1      -4.015   9.497  20.938  0.00  0.00    +0.000 N 
ATOM     11  C   UNL     1      -3.713   8.117  20.535  0.00  0.00    +0.000 C 
ATOM     12  C   UNL     1      -5.035   7.368  20.320  0.00  0.00    +0.000 C 
ATOM     13  C   UNL     1      -4.879   9.722  22.107  0.00  0.00    +0.000 C 
ATOM     14  C   UNL     1      -6.202   8.979  21.888  0.00  0.00    +0.000 C 
ATOM     15  N   UNL     1      -5.897   7.594  21.488  0.00  0.00    +0.000 N 
ATOM     16  C   UNL     1      -6.404   6.552  22.178  0.00  0.00    +0.000 C 
ATOM     17  O   UNL     1      -6.209   5.415  21.792  0.00  0.00    +0.000 OA
BRANCH   8  20
ATOM     18  C   UNL     1      -1.118  10.512  19.232  0.00  0.00    +0.000 C 
ATOM     19  C   UNL     1      -1.945  11.507  18.416  0.00  0.00    +0.000 C 
ATOM     20  C   UNL     1      -2.622  10.293  19.056  0.00  0.00    +0.000 C 
ENDBRANCH   8  20
ENDBRANCH   1  16
BRANCH   7  21
ATOM     21  C   UNL     1     -10.219   8.790  24.483  0.00  0.00    +0.000 C 
BRANCH  21  22
ATOM     22  C   UNL     1     -10.120   9.779  25.616  0.00  0.00    +0.000 A 
ATOM     23  C   UNL     1      -8.898  10.563  25.798  0.00  0.00    +0.000 A 
ATOM     24  C   UNL     1      -7.798  10.422  24.949  0.00  0.00    +0.000 A 
ATOM     25  C   UNL     1      -6.680  11.177  25.161  0.00  0.00    +0.000 A 
ATOM     26  C   UNL     1      -6.619  12.086  26.210  0.00  0.00    +0.000 A 
ATOM     27  C   UNL     1      -7.689  12.247  27.063  0.00  0.00    +0.000 A 
ATOM     28  C   UNL     1      -8.842  11.486  26.867  0.00  0.00    +0.000 A 
ATOM     29  C   UNL     1     -10.014  11.611  27.741  0.00  0.00    +0.000 A 
ATOM     30  O   UNL     1     -10.013  12.393  28.675  0.00  0.00    +0.000 OA
ATOM     31  N   UNL     1     -11.095  10.842  27.490  0.00  0.00    +0.000 N 
ATOM     32  N   UNL     1     -11.123   9.939  26.427  0.00  0.00    +0.000 NA
ATOM     33  H   UNL     1     -11.873  10.919  28.065  0.00  0.00    +0.000 HD
ENDBRANCH  21  22
ENDBRANCH   7  21
TORSDOF 4
ENDMDL
MODEL 7
REMARK VINA RESULT:   -10.005      3.533      7.014
REMARK INTER + INTRA:         -12.603
REMARK INTER:                 -12.606
REMARK INTRA:                   0.003
REMARK UNBOUND:                -0.258
REMARK  Name = 09L - Ideal conformer
REMARK  4 active torsions:
REMARK  status: ('A' for Active; 'I' for Inactive)
REMARK    1  A    between atoms: C_3  and  C_4
REMARK    2  A    between atoms: C_12  and  C_14
REMARK    3  A    between atoms: C_20  and  C_21
REMARK    4  A    between atoms: C_21  and  C_22
REMARK                            x       y       z     vdW  Elec       q    Type
REMARK                         _______ _______ _______ _____ _____    ______ ____
ROOT
ATOM      1  C   UNL     1      21.499   3.538  15.965  0.00  0.00    +0.000 A 
ATOM      2  C   UNL     1      20.213   3.288  16.449  0.00  0.00    +0.000 A 
ATOM      3  C   UNL     1      22.530   2.635  16.239  0.00  0.00    +0.000 A 
ATOM      4  F   UNL     1      23.776   2.867  15.770  0.00  0.00    +0.000 F 
ATOM      5  C   UNL     1      22.271   1.505  16.992  0.00  0.00    +0.000 A 
ATOM      6  C   UNL     1      20.997   1.269  17.472  0.00  0.00    +0.000 A 
ATOM      7  C   UNL     1      19.970   2.157  17.199  0.00  0.00    +0.000 A 
ENDROOT
BRANCH   1  16
ATOM      8  C   UNL     1      23.359   9.124  17.675  0.00  0.00    +0.000 C 
ATOM      9  O   UNL     1      23.171   9.222  18.869  0.00  0.00    +0.000 OA
ATOM     10  N   UNL     1      23.241   7.925  17.070  0.00  0.00    +0.000 N 
ATOM     11  C   UNL     1      23.471   7.791  15.625  0.00  0.00    +0.000 C 
ATOM     12  C   UNL     1      22.234   7.145  14.989  0.00  0.00    +0.000 C 
ATOM     13  C   UNL     1      22.886   6.727  17.845  0.00  0.00    +0.000 C 
ATOM     14  C   UNL     1      21.645   6.085  17.213  0.00  0.00    +0.000 C 
ATOM     15  N   UNL     1      21.879   5.948  15.765  0.00  0.00    +0.000 N 
ATOM     16  C   UNL     1      21.765   4.748  15.160  0.00  0.00    +0.000 C 
ATOM     17  O   UNL     1      21.884   4.662  13.953  0.00  0.00    +0.000 OA
BRANCH   8  20
ATOM     18  C   UNL     1      23.784  11.684  17.601  0.00  0.00    +0.000 C 
ATOM     19  C   UNL     1      22.632  11.390  16.638  0.00  0.00    +0.000 C 
ATOM     20  C   UNL     1      23.724  10.342  16.868  0.00  0.00    +0.000 C 
ENDBRANCH   8  20
ENDBRANCH   1  16
BRANCH   7  21
ATOM     21  C   UNL     1      18.584   1.886  17.722  0.00  0.00    +0.000 C 
BRANCH  21  22
ATOM     22  C   UNL     1      17.591   1.991  16.593  0.00  0.00    +0.000 A 
ATOM     23  C   UNL     1      17.004   3.288  16.253  0.00  0.00    +0.000 A 
ATOM     24  C   UNL     1      17.330   4.451  16.953  0.00  0.00    +0.000 A 
ATOM     25  C   UNL     1      16.755   5.638  16.597  0.00  0.00    +0.000 A 
ATOM     26  C   UNL     1      15.847   5.706  15.547  0.00  0.00    +0.000 A 
ATOM     27  C   UNL     1      15.506   4.574  14.839  0.00  0.00    +0.000 A 
ATOM     28  C   UNL     1      16.080   3.351  15.184  0.00  0.00    +0.000 A 
ATOM     29  C   UNL     1      15.758   2.111  14.469  0.00  0.00    +0.000 A 
ATOM     30  O   UNL     1      14.968   2.116  13.541  0.00  0.00    +0.000 OA
ATOM     31  N   UNL     1      16.353   0.963  14.859  0.00  0.00    +0.000 N 
ATOM     32  N   UNL     1      17.262   0.930  15.917  0.00  0.00    +0.000 NA
ATOM     33  H   UNL     1      16.143   0.140  14.391  0.00  0.00    +0.000 HD
ENDBRANCH  21  22
ENDBRANCH   7  21
TORSDOF 4
ENDMDL
MODEL 8
REMARK VINA RESULT:    -9.937     21.081     27.062
REMARK INTER + INTRA:         -12.519
REMARK INTER:                 -12.327
REMARK INTRA:                  -0.192
REMARK UNBOUND:                -0.258
REMARK  Name = 09L - Ideal conformer
REMARK  4 active torsions:
REMARK  status: ('A' for Active; 'I' for Inactive)
REMARK    1  A    between atoms: C_3  and  C_4
REMARK    2  A    between atoms: C_12  and  C_14
REMARK    3  A    between atoms: C_20  and  C_21
REMARK    4  A    between atoms: C_21  and  C_22
REMARK                            x       y       z     vdW  Elec       q    Type
REMARK                         _______ _______ _______ _____ _____    ______ ____
ROOT
ATOM      1  C   UNL     1      -4.949   8.360  20.640  0.00  0.00    +0.000 A 
ATOM      2  C   UNL     1      -5.205   9.349  21.592  0.00  0.00    +0.000 A 
ATOM      3  C   UNL     1      -4.914   7.018  21.028  0.00  0.00    +0.000 A 
ATOM      4  F   UNL     1      -4.672   6.053  20.113  0.00  0.00    +0.000 F 
ATOM      5  C   UNL     1      -5.127   6.680  22.353  0.00  0.00    +0.000 A 
ATOM      6  C   UNL     1      -5.374   7.666  23.288  0.00  0.00    +0.000 A 
ATOM      7  C   UNL     1      -5.415   8.997  22.908  0.00  0.00    +0.000 A 
ENDROOT
BRANCH   1  16
ATOM      8  C   UNL     1      -0.064   7.512  17.035  0.00  0.00    +0.000 C 
ATOM      9  O   UNL     1       0.882   7.265  17.753  0.00  0.00    +0.000 OA
ATOM     10  N   UNL     1      -1.311   7.530  17.545  0.00  0.00    +0.000 N 
ATOM     11  C   UNL     1      -2.466   7.822  16.685  0.00  0.00    +0.000 C 
ATOM     12  C   UNL     1      -3.247   8.995  17.294  0.00  0.00    +0.000 C 
ATOM     13  C   UNL     1      -1.541   7.253  18.970  0.00  0.00    +0.000 C 
ATOM     14  C   UNL     1      -2.315   8.427  19.580  0.00  0.00    +0.000 C 
ATOM     15  N   UNL     1      -3.475   8.717  18.718  0.00  0.00    +0.000 N 
ATOM     16  C   UNL     1      -4.724   8.731  19.228  0.00  0.00    +0.000 C 
ATOM     17  O   UNL     1      -5.664   9.047  18.525  0.00  0.00    +0.000 OA
BRANCH   8  20
ATOM     18  C   UNL     1       0.355   6.601  14.639  0.00  0.00    +0.000 C 
ATOM     19  C   UNL     1       1.541   7.500  14.994  0.00  0.00    +0.000 C 
ATOM     20  C   UNL     1       0.156   7.798  15.572  0.00  0.00    +0.000 C 
ENDBRANCH   8  20
ENDBRANCH   1  16
BRANCH   7  21
ATOM     21  C   UNL     1      -5.691  10.063  23.936  0.00  0.00    +0.000 C 
BRANCH  21  22
ATOM     22  C   UNL     1      -7.115   9.944  24.415  0.00  0.00    +0.000 A 
ATOM     23  C   UNL     1      -7.582  10.765  25.533  0.00  0.00    +0.000 A 
ATOM     24  C   UNL     1      -6.741  11.666  26.187  0.00  0.00    +0.000 A 
ATOM     25  C   UNL     1      -7.224  12.411  27.226  0.00  0.00    +0.000 A 
ATOM     26  C   UNL     1      -8.544  12.283  27.643  0.00  0.00    +0.000 A 
ATOM     27  C   UNL     1      -9.397  11.402  27.016  0.00  0.00    +0.000 A 
ATOM     28  C   UNL     1      -8.925  10.631  25.953  0.00  0.00    +0.000 A 
ATOM     29  C   UNL     1      -9.784   9.675  25.244  0.00  0.00    +0.000 A 
ATOM     30  O   UNL     1     -10.949   9.525  25.570  0.00  0.00    +0.000 OA
ATOM     31  N   UNL     1      -9.259   8.963  24.225  0.00  0.00    +0.000 N 
ATOM     32  N   UNL     1      -7.929   9.116  23.831  0.00  0.00    +0.000 NA
ATOM     33  H   UNL     1      -9.821   8.328  23.753  0.00  0.00    +0.000 HD
ENDBRANCH  21  22
ENDBRANCH   7  21
TORSDOF 4
ENDMDL
MODEL 9
REMARK VINA RESULT:    -9.887      3.031      4.982
REMARK INTER + INTRA:         -12.457
REMARK INTER:                 -12.199
REMARK INTRA:                  -0.258
REMARK UNBOUND:                -0.258
REMARK  Name = 09L - Ideal conformer
REMARK  4 active torsions:
REMARK  status: ('A' for Active; 'I' for Inactive)
REMARK    1  A    between atoms: C_3  and  C_4
REMARK    2  A    between atoms: C_12  and  C_14
REMARK    3  A    between atoms: C_20  and  C_21
REMARK    4  A    between atoms: C_21  and  C_22
REMARK                            x       y       z     vdW  Elec       q    Type
REMARK                         _______ _______ _______ _____ _____    ______ ____
ROOT
ATOM      1  C   UNL     1      15.970   4.159  14.866  0.00  0.00    +0.000 A 
ATOM      2  C   UNL     1      16.723   3.109  15.398  0.00  0.00    +0.000 A 
ATOM      3  C   UNL     1      16.097   5.443  15.403  0.00  0.00    +0.000 A 
ATOM      4  F   UNL     1      15.376   6.465  14.891  0.00  0.00    +0.000 F 
ATOM      5  C   UNL     1      16.962   5.664  16.459  0.00  0.00    +0.000 A 
ATOM      6  C   UNL     1      17.698   4.618  16.983  0.00  0.00    +0.000 A 
ATOM      7  C   UNL     1      17.581   3.345  16.451  0.00  0.00    +0.000 A 
ENDROOT
BRANCH   1  16
ATOM      8  C   UNL     1       9.891   4.845  14.466  0.00  0.00    +0.000 C 
ATOM      9  O   UNL     1       9.456   4.914  15.595  0.00  0.00    +0.000 OA
ATOM     10  N   UNL     1      11.220   4.908  14.250  0.00  0.00    +0.000 N 
ATOM     11  C   UNL     1      11.761   4.831  12.885  0.00  0.00    +0.000 C 
ATOM     12  C   UNL     1      12.788   3.692  12.828  0.00  0.00    +0.000 C 
ATOM     13  C   UNL     1      12.155   5.061  15.375  0.00  0.00    +0.000 C 
ATOM     14  C   UNL     1      13.176   3.919  15.321  0.00  0.00    +0.000 C 
ATOM     15  N   UNL     1      13.721   3.845  13.953  0.00  0.00    +0.000 N 
ATOM     16  C   UNL     1      15.050   3.913  13.737  0.00  0.00    +0.000 C 
ATOM     17  O   UNL     1      15.491   3.773  12.613  0.00  0.00    +0.000 OA
BRANCH   8  20
ATOM     18  C   UNL     1       8.300   5.957  12.741  0.00  0.00    +0.000 C 
ATOM     19  C   UNL     1       7.464   4.968  13.555  0.00  0.00    +0.000 C 
ATOM     20  C   UNL     1       8.946   4.688  13.303  0.00  0.00    +0.000 C 
ENDBRANCH   8  20
ENDBRANCH   1  16
BRANCH   7  21
ATOM     21  C   UNL     1      18.393   2.214  17.025  0.00  0.00    +0.000 C 
BRANCH  21  22
ATOM     22  C   UNL     1      19.849   2.422  16.695  0.00  0.00    +0.000 A 
ATOM     23  C   UNL     1      20.873   1.620  17.365  0.00  0.00    +0.000 A 
ATOM     24  C   UNL     1      20.546   0.656  18.321  0.00  0.00    +0.000 A 
ATOM     25  C   UNL     1      21.539  -0.068  18.919  0.00  0.00    +0.000 A 
ATOM     26  C   UNL     1      22.872   0.142  18.590  0.00  0.00    +0.000 A 
ATOM     27  C   UNL     1      23.225   1.086  17.651  0.00  0.00    +0.000 A 
ATOM     28  C   UNL     1      22.228   1.837  17.027  0.00  0.00    +0.000 A 
ATOM     29  C   UNL     1      22.539   2.857  16.019  0.00  0.00    +0.000 A 
ATOM     30  O   UNL     1      23.693   3.079  15.695  0.00  0.00    +0.000 OA
ATOM     31  N   UNL     1      21.523   3.545  15.457  0.00  0.00    +0.000 N 
ATOM     32  N   UNL     1      20.193   3.309  15.810  0.00  0.00    +0.000 NA
ATOM     33  H   UNL     1      21.722   4.221  14.791  0.00  0.00    +0.000 HD
ENDBRANCH  21  22
ENDBRANCH   7  21
TORSDOF 4
ENDMDL
